MATERIAL COMBUST         ! PT/AL2O3 Catalyst
SITE/PT_POLY/    SDEN/2.707E-09/
   H(*)/1/   
   O(*)/1/
   OH(*)/1/ 
   H2O(*)/1/ 
   CO(*)/1/  
   C(*)/1/ 
   CH(*)/1/  
   CH2(*)/1/ 
   CH3(*)/1/ 
   PT(*)/1/              ! Free surface site
END
!*
THERMO ALL
  300.     1000.     3000.
O(*)               71496O   1               I    300.00   3000.00 1000.00      1
 0.13942949E+01 0.23809458E-02-0.14461439E-05 0.40382496E-09-0.42764283E-13    2
-0.13956668E+05-0.86746618E+01-0.25750111E+01 0.18247293E-01-0.26176132E-04    3
 0.18141982E-07-0.49479751E-11-0.13130704E+05 0.10556563E+02                   4
H(*)               71496H   1               I    300.00   3000.00 1000.00      1
-0.37254031E+00 0.49359753E-02-0.29881996E-05 0.83545025E-09-0.88757642E-13    2
-0.46098289E+04 0.52657726E+00-0.91567127E+00 0.25345911E-02 0.78538017E-05    3
-0.11471876E-07 0.43210824E-11-0.42851427E+04 0.42587586E+01                   4
OH(*)              71596O   1H   1          I    300.00   3000.00 1000.00      1
 0.43280953E+00 0.81685976E-02-0.49483621E-05 0.13831503E-08-0.14685304E-12    2
-0.20134883E+05-0.50810048E+01-0.29375691E+01 0.15544317E-01-0.69790189E-05    3
-0.32011799E-08 0.24627931E-11-0.19151325E+05 0.12716053E+02                   4
H2O(*)             71496O   1H   2          I    300.00   3000.00 1000.00      1
-0.13147282E+01 0.14200196E-01-0.82414925E-05 0.22355057E-08-0.23222828E-12    2
-0.37266742E+05 0.33027649E+01-0.25731321E+01 0.11282638E-01 0.78870377E-05    3
-0.16235265E-07 0.62859742E-11-0.36611683E+05 0.11376177E+02                   4
C(*)               71496C   1               I    300.00   3000.00 1000.00      1
 0.13942949E+01 0.23809458E-02-0.14461439E-05 0.40382496E-09-0.42764283E-13    2
-0.37513079E+04-0.86746618E+01-0.25750111E+01 0.18247293E-01-0.26176132E-04    3
 0.18141982E-07-0.49479751E-11-0.29253435E+04 0.10556563E+02                   4
CO(*)              71596C   1O   1          I    300.00   3000.00 1000.00      1
 0.27885898E+01 0.47618916E-02-0.28922878E-05 0.80764992E-09-0.85528566E-13    2
-0.32301440E+05-0.17349324E+02-0.51500222E+01 0.36494587E-01-0.52352264E-04    3
 0.36283964E-07-0.98959502E-11-0.30649511E+05 0.21113126E+02                   4
CH(*)              71496C   1H   1          I    300.00   3000.00 1000.00      1
 0.43280953E+00 0.81685976E-02-0.49483621E-05 0.13831503E-08-0.14685304E-12    2
-0.82085001E+04-0.50810048E+01-0.29375691E+01 0.15544317E-01-0.69790189E-05    3
-0.32011799E-08 0.24627931E-11-0.72249422E+04 0.12716053E+02                   4
CH2(*)             71496C   1H   2          I    300.00   3000.00 1000.00      1
 0.43280953E+00 0.81685976E-02-0.49483621E-05 0.13831503E-08-0.14685304E-12    2
-0.12604655E+05-0.50810048E+01-0.29375691E+01 0.15544317E-01-0.69790189E-05    3
-0.32011799E-08 0.24627931E-11-0.11621097E+05 0.12716053E+02                   4
CH3(*)             71496C   1H   3          I    300.00   3000.00 1000.00      1
 0.43280953E+00 0.81685976E-02-0.49483621E-05 0.13831503E-08-0.14685304E-12    2
-0.17000810E+05-0.50810048E+01-0.29375691E+01 0.15544317E-01-0.69790189E-05    3
-0.32011799E-08 0.24627931E-11-0.16017253E+05 0.12716053E+02                   4
PT(*)              71496PT  0    0    0    0S   300.000  2043.000 2043.00    0 1
 0.42104604E+01 0.00000000E+00 0.00000000E+00 0.00000000E+00 0.00000000E+00    2
-0.21920021E+04-0.20343238E+02 0.29150182E+01 0.65544374E-03-0.12262437E-07    3
 0.68269192E-11-0.13131844E-14-0.89820876E+03-0.11796023E+02                   4
END
!**
REACTIONS     KJOULES/MOLE
! adsorption/desorption
O2  + 2PT(*)       => O(*) + O(*)        0.003      0.0     0.00
       STICK
2O(*)              => O2 + 2PT(*)        1.00E+21   0.0   216.00
H2O +  PT(*)       => H2O(*)             0.500      0.0     0.00
       STICK
H2O(*)             => H2O  + PT(*)       1.00E+13   0.0    45.00
! Langmuir-Hinshelwood mechanism 
CH4 + 2PT(*)       => CH3(*) + H(*)      0.150      0.0    27.0
       STICK
CH4 + O(*) + PT(*) => CH3(*) + OH(*)     0.43       0.0    59.20
       STICK 
CH3(*) + PT(*)     => CH2(*) + H(*)      1.00E+21   0.0     0.00
CH2(*) + PT(*)     => CH(*) + H(*)       1.00E+21   0.0     0.00
CH(*) + PT(*)      => C(*) + H(*)        1.00E+21   0.0     0.00
CO + PT(*)         => CO(*)              0.840      0.0     0.00
       STICK 
!CO(*)              => CO + PT(*)         1.00E+13   0.0   152.50
CO(*)              => CO + PT(*)         8.50E+12   0.0   152.50
!  high phi 
CO(*)+ O(*)        => CO2 + 2PT(*)       1.00E+21   0.0   100.80  
!  low  phi 
!CO(*) + O(*) => CO2 + 2PT(*)             4.00E+18   0.0    49.14  
! surface reactions
H(*) + O(*)        => OH(*)+ PT(*)       1.00E+19   0.0    10.50
OH(*) + PT(*)      => H(*) + O(*)        1.00E+12   0.0    20.80 
H(*) + OH(*)       => H2O(*) + PT(*)     1.00E+21   0.0    62.50
H2O(*) + PT(*)     => OH(*) + H(*)       1.08E+17   0.0   154.20 
2OH(*)             => H2O(*) + O(*)      1.00E+19   0.0    51.25 
C(*) + O(*)        => CO(*) + PT(*)      5.00E+20   0.0    62.50
CO(*) + PT(*)      => C(*) + O(*)        1.00E+15   0.0   156.50
H2 + 2PT(*)        => H(*) + H(*)        0.046      0.0     0.00
       STICK 
2H(*)              => H2 + 2PT(*)        5.00E+20   0.0    67.40 
OH + PT(*)         => OH(*)              1.000      0.0     0.00
       STICK 
OH(*)              => OH + PT(*)         1.50E+13   0.0   192.80
!***
END
